/*--------------------------------*- C++ -*----------------------------------*\
  =========                 |
  \\      /  F ield         | OpenFOAM: The Open Source CFD Toolbox
   \\    /   O peration     | Website:  https://openfoam.org
    \\  /    A nd           | Version:  13
     \\/     M anipulation  |
\*---------------------------------------------------------------------------*/
FoamFile
{
    format      ascii;
    class       dictionary;
    location    "constant";
    object      fvModels;
}
// * * * * * * * * * * * * * * * * * * * * * * * * * * * * * * * * * * * * * //

VOFsolidificationMelting1
{
    type            VoFSolidificationMelting;

    cellZone        sys-liquid;

    Tsol            272.95;

    alphaSolidT     table
    (
    (272.95 1.0)
    (273.35 0.0)
    );
    L               80332;
    relax           0.7;
    Cu              1e6;
    
}

VOFsolidificationMelting2
{
    type            VoFSolidificationMelting;

    cellZone        sys-liquid;

    Tsol            272.95;

    alphaSolidT     table
    (
    (272.95 1.0)
    (273.35 0.0)
    );
    L               80332;
    relax           0.7;
    Cu              1e6;
    
}



// ************************************************************************* //
