/*--------------------------------*- C++ -*----------------------------------*\
  =========                 |
  \\      /  F ield         | OpenFOAM: The Open Source CFD Toolbox
   \\    /   O peration     | Website:  https://openfoam.org
    \\  /    A nd           | Version:  13
     \\/     M anipulation  |
\*---------------------------------------------------------------------------*/
FoamFile
{
    format      ascii;
    class       volVectorField;
    location    "0";
    object      U;
}
// * * * * * * * * * * * * * * * * * * * * * * * * * * * * * * * * * * * * * //

dimensions      [0 1 -1 0 0 0 0];

internalField   uniform (0 0 0);

boundaryField
{
    wall_solid
    {
        type            fixedValue;
        value           uniform (0 0 0);
    }
    wall_cold
    {
        type            fixedValue;
        value           uniform (0 0 0);
    }
    wall_liquid
    {
        type            fixedValue;
        value           uniform (0 0 0);
    }
    wall_air
    {
        type            fixedValue;
        value           uniform (0 0 0);
    }
}


// ************************************************************************* //
