/*--------------------------------*- C++ -*----------------------------------*\
  =========                 |
  \\      /  F ield         | OpenFOAM: The Open Source CFD Toolbox
   \\    /   O peration     | Website:  https://openfoam.org
    \\  /    A nd           | Version:  13
     \\/     M anipulation  |
\*---------------------------------------------------------------------------*/
FoamFile
{
    format      ascii;
    class       dictionary;
    location    "system";
    object      controlDict;
}
// * * * * * * * * * * * * * * * * * * * * * * * * * * * * * * * * * * * * * //

solver          compressibleVoF;

startFrom       latestTime;

startTime       0;

stopAt          endTime;

endTime         10;

deltaT          0.00001;

writeControl   timeStep;

writeInterval   1000;

purgeWrite      0;

writeFormat     ascii;

writePrecision  8;

writeCompression off;

timeFormat      general;

timePrecision   11;

runTimeModifiable yes;

adjustTimeStep  yes; //yes

maxCo           0.4;
maxAlphaCo      0.05;
maxDeltaT       0.0001;


functions
{
  residuals
  {
    type            residuals;
    libs            ("libutilityFunctionObjects.so");
    fields          (p_rgh U k epsilon omega T alpha.water);
    writeControl    timeStep;
    writeInterval   5;
    log             true;
  }

    
}

// ************************************************************************* //
