/*--------------------------------*- C++ -*----------------------------------*\
  =========                 |
  \\      /  F ield         | OpenFOAM: The Open Source CFD Toolbox
   \\    /   O peration     | Website:  https://openfoam.org
    \\  /    A nd           | Version:  13
     \\/     M anipulation  |
\*---------------------------------------------------------------------------*/
FoamFile
{
    format      ascii;
    class       dictionary;
    location    "system";
    object      controlDict;
}
// * * * * * * * * * * * * * * * * * * * * * * * * * * * * * * * * * * * * * //

solver          compressibleVoF;

startFrom       latestTime;

startTime       0;

stopAt          endTime;

endTime         70.0;

deltaT          0.001;

writeControl    timeStep;

writeInterval   1500;

purgeWrite      0;

writeFormat     ascii;

writePrecision  8;

writeCompression off;

timeFormat      general;

timePrecision   11;

runTimeModifiable yes;

adjustTimeStep  yes;

maxCo           1.0;
maxAlphaCo      0.2;
maxDeltaT       0.005;


functions
{
    yPlus
    {
        type            yPlus;
        libs            ("libfieldFunctionObjects.so");
        writeControl    timeStep;      
        writeInterval   1500;           
    }

    wallShearStress
    {
        type            wallShearStress;
        libs            ("libfieldFunctionObjects.so");
        writeControl    timeStep;
        writeInterval   1500;
    }

  residuals
  {
    type            residuals;
    libs            ("libutilityFunctionObjects.so");
    fields          (p_rgh U k epsilon omega T alpha.water);
    writeControl    timeStep;
    writeInterval   1;
    log             true;
  }

    
}

// ************************************************************************* //
