/*--------------------------------*- C++ -*----------------------------------*\
  =========                 |
  \\      /  F ield         | OpenFOAM: The Open Source CFD Toolbox
   \\    /   O peration     | Website:  https://openfoam.org
    \\  /    A nd           | Version:  13
     \\/     M anipulation  |
\*---------------------------------------------------------------------------*/
FoamFile
{
    format      ascii;
    class       dictionary;
    location    "constant";
    object      fvModels;
}
// * * * * * * * * * * * * * * * * * * * * * * * * * * * * * * * * * * * * * //

VOFsolidificationMelting1
{
    type            VoFSolidificationMelting;

    cellZone        mould;

    Tsol            1660;

    alphaSolidT     table
    (
    (1660.0 1.0)
    (1661.5 0.9)
    (1664.8 0.8)
    (1669.4 0.7)
    (1675.2 0.6)
    (1682.0 0.5)
    (1689.9 0.4)
    (1698.6 0.3)
    (1708.3 0.2)
    (1718.7 0.1)
    (1730.0 0.0)
    );
    L               230000;
    relax           0.8;
    Cu              1e7;
    
}




// ************************************************************************* //
