/*--------------------------------*- C++ -*----------------------------------*\
  =========                 |
  \\      /  F ield         | OpenFOAM: The Open Source CFD Toolbox
   \\    /   O peration     | Website:  https://openfoam.org
    \\  /    A nd           | Version:  13
     \\/     M anipulation  |
\*---------------------------------------------------------------------------*/
FoamFile
{
    format      ascii;
    class       volScalarField;
    location    "0";
    object      epsilon;
}
// * * * * * * * * * * * * * * * * * * * * * * * * * * * * * * * * * * * * * //

dimensions      [0 2 -3 0 0 0 0];

internalField   uniform 0.023;

boundaryField
{
    wall_mould
    {
        type            epsilonWallFunction;
        value           uniform 0.023;
    }
    wall_atm
    {
        type            epsilonWallFunction;
        value           uniform 0.023;
    }
    wall_sen
    {
        type            epsilonWallFunction;
        value           uniform 0.023;
    }
    outlet
    {
        type            zeroGradient;
    }
    inlet
    {
        type            zeroGradient;
    }
    atm
    {
        type            zeroGradient;
    }
}


// ************************************************************************* //
